@<TRIPOS>MOLECULE
ZINC000184294988      none
 27 29 0 0 0
SMALL
GASTEIGER

@<TRIPOS>ATOM
      1 C          53.5739   31.6443   37.1162 C.3     1  UNL1        0.0910
      2 N          51.0548   31.6906   34.4384 N.am    1  UNL1       -0.2537
      3 C          51.8261   32.0759   35.4742 C.2     1  UNL1        0.3055
      4 O          51.7018   33.1908   35.9430 O.2     1  UNL1       -0.2525
      5 N          52.7355   31.2254   35.9903 N.am    1  UNL1       -0.2887
      6 H          50.4005   32.3027   34.0667 H       1  UNL1        0.1578
      7 H          52.8346   30.3359   35.6161 H       1  UNL1        0.1510
      8 C          51.6016   26.4964   32.3563 C.3     1  UNL1        0.0327
      9 C          51.4656   27.9026   32.8807 C.ar    1  UNL1       -0.0026
     10 C          51.7204   28.9874   32.0529 C.ar    1  UNL1        0.0001
     11 C          51.5832   30.2622   32.5740 C.ar    1  UNL1        0.0342
     12 C          51.1973   30.4123   33.9009 C.ar    1  UNL1        0.1353
     13 N          50.9633   29.3524   34.6588 N.ar    1  UNL1       -0.2293
     14 C          51.0807   28.1257   34.1881 C.ar    1  UNL1        0.0960
     15 C          54.5607   30.5269   37.4605 C.3     1  UNL1        0.0231
     16 C          54.4842   30.2229   38.9585 C.3     1  UNL1        0.0232
     17 C          55.4980   29.1280   39.3056 C.3     1  UNL1        0.0908
     18 N          55.2535   27.9658   38.4407 N.pl3   1  UNL1       -0.3077
     19 C          55.2156   28.1637   36.9853 C.3     1  UNL1        0.0908
     20 C          54.2051   29.2694   36.6642 C.3     1  UNL1        0.0232
     21 C          55.0609   26.7015   38.9896 C.2     1  UNL1        0.0465
     22 C          55.4308   25.5535   38.2892 C.2     1  UNL1        0.0096
     23 C          55.2235   24.3193   38.8684 C.3     1  UNL1        0.1153
     24 N          54.6831   24.2172   40.0684 N.pl3   1  UNL1       -0.3280
     25 H          54.5494   23.3359   40.4511 H       1  UNL1        0.1472
     26 C          54.3198   25.2793   40.7626 C.2     1  UNL1        0.0594
     27 C          54.4980   26.5495   40.2566 C.2     1  UNL1        0.0298
@<TRIPOS>BOND
     1     8     9    1
     2     9    14   ar
     3     9    10   ar
     4    10    11   ar
     5    11    12   ar
     6    12     2    1
     7    12    13   ar
     8     2     3   am
     9     2     6    1
    10     3     4    2
    11     3     5   am
    12     5     1    1
    13     5     7    1
    14     1    15    1
    15    15    20    1
    16    15    16    1
    17    16    17    1
    18    17    18    1
    19    18    21    1
    20    18    19    1
    21    21    27    1
    22    21    22    2
    23    22    23    1
    24    23    24    1
    25    24    25    1
    26    24    26    1
    27    26    27    2
    28    19    20    1
    29    13    14   ar
